data/rts96_ps.m
function ps = rts96_ps
% TODO: ps.mac, ps.shunt, ps.exc, ps.gov

ps.casename = 'rts96';

ps.baseMVA = 100.000000;

ps.bus = [...
%ID type Pd Qd Gs Bs area Vmag Vang basekV zone Vmax Vmin lam_P lam_Q mu_Vx mu_Vn locX locY delta_sys 
101	2	108	22	0	0	1	1.0204	0			138	1	1.2	0.8 0 0 0 0 0 0 0;
102	2	97	20	0	0	1	1.01962	-0.07478	138	1	1.2	0.8 0 0 0 0 0 0 0;
103	1	180	37	0	0	1	0.98699	2.01614		138	1	1.2	0.8 0 0 0 0 0 0 0;
104	1	74	15	0	0	1	0.99298	-1.75632	138	1	1.2	0.8 0 0 0 0 0 0 0;
105	1	71	14	0	0	1	1.00914	-2.09578	138	1	1.2	0.8 0 0 0 0 0 0 0;
106	1	136	28	0	0	1	1.03	-4.45576	138	1	1.2	0.8 0 0 0 0 0 0 0;
107	2	125	25	0	0	1	1.02262	-2.1187		138	1	1.2	0.8 0 0 0 0 0 0 0;
108	1	171	35	0	0	1	0.9911	-4.46072	138	1	1.2	0.8 0 0 0 0 0 0 0;
109	1	175	36	0	0	1	1.0052	1.07016		138	1	1.2	0.8 0 0 0 0 0 0 0;
110	1	195	40	0	0	1	1.02449	-0.94884	138	1	1.2	0.8 0 0 0 0 0 0 0;
111	1	0	0	0	0	1	1.00961	7.17923		230	1	1.2	0.8 0 0 0 0 0 0 0;
112	1	0	0	0	0	1	1.00148	8.19774		230	1	1.2	0.8 0 0 0 0 0 0 0;
113	3	265	54	0	0	1	1.03	11.32197	230	1	1.2	0.8 0 0 0 0 0 0 0;
114	2	194	39	0	0	1	1.02886	10.29079	230	1	1.2	0.8 0 0 0 0 0 0 0;
115	2	317	64	0	0	1	1.02322	17.9703		230	1	1.2	0.8 0 0 0 0 0 0 0;
116	2	100	20	0	0	1	1.02736	17.52027	230	1	1.2	0.8 0 0 0 0 0 0 0;
117	1	0	0	0	0	1	1.02869	21.65746	230	1	1.2	0.8 0 0 0 0 0 0 0;
118	2	333	68	0	0	1	1.03	22.88942	230	1	1.2	0.8 0 0 0 0 0 0 0;
119	1	181	37	0	0	1	1.02036	16.93941	230	1	1.2	0.8 0 0 0 0 0 0 0;
120	1	128	26	0	0	1	1.02426	18.36855	230	1	1.2	0.8 0 0 0 0 0 0 0;
121	2	0	0	0	0	1	1.03	23.53048	230	1	1.2	0.8 0 0 0 0 0 0 0;
122	2	0	0	0	0	1	1.03	29.55401	230	1	1.2	0.8 0 0 0 0 0 0 0;
123	2	0	0	0	0	1	1.03	19.88213	230	1	1.2	0.8 0 0 0 0 0 0 0;
124	1	0	0	0	0	1	0.98981	12.12555	230	1	1.2	0.8 0 0 0 0 0 0 0;
201	2	108	22	0	0	1	1.02847	-2.3483		138	1	1.2	0.8 0 0 0 0 0 0 0;
202	2	97	20	0	0	1	1.02769	-2.41573	138	1	1.2	0.8 0 0 0 0 0 0 0;
203	1	180	37	0	0	1	0.99801	-0.61492	138	1	1.2	0.8 0 0 0 0 0 0 0;
204	1	74	15	0	0	1	0.99613	-3.97932	138	1	1.2	0.8 0 0 0 0 0 0 0;
205	1	71	14	0	0	1	1.01207	-4.30499	138	1	1.2	0.8 0 0 0 0 0 0 0;
206	1	136	28	0	0	1	1.03	-6.59881	138	1	1.2	0.8 0 0 0 0 0 0 0;
207	2	125	25	0	0	1	1.00294	-10.869		138	1	1.2	0.8 0 0 0 0 0 0 0;
208	1	171	35	0	0	1	0.97579	-10.45573	138	1	1.2	0.8 0 0 0 0 0 0 0;
209	1	175	36	0	0	1	1.00421	-1.07542	138	1	1.2	0.8 0 0 0 0 0 0 0;
210	1	195	40	0	0	1	1.02192	-3.03569	138	1	1.2	0.8 0 0 0 0 0 0 0;
211	1	0	0	0	0	1	1.00758	6.01193		230	1	1.2	0.8 0 0 0 0 0 0 0;
212	1	0	0	0	0	1	0.99753	7.32389		230	1	1.2	0.8 0 0 0 0 0 0 0;
213	2	265	54	0	0	1	1.03	11.48128	230	1	1.2	0.8 0 0 0 0 0 0 0;
214	2	194	39	0	0	1	1.03	8.83895		230	1	1.2	0.8 0 0 0 0 0 0 0;
215	2	317	64	0	0	1	1.02512	15.65685	230	1	1.2	0.8 0 0 0 0 0 0 0;
216	2	100	20	0	0	1	1.02868	15.80188	230	1	1.2	0.8 0 0 0 0 0 0 0;
217	1	0	0	0	0	1	1.0298	19.96028	230	1	1.2	0.8 0 0 0 0 0 0 0;
218	2	333	68	0	0	1	1.03	21.22543	230	1	1.2	0.8 0 0 0 0 0 0 0;
219	1	181	37	0	0	1	1.02083	15.8425		230	1	1.2	0.8 0 0 0 0 0 0 0;
220	1	128	26	0	0	1	1.02423	17.80528	230	1	1.2	0.8 0 0 0 0 0 0 0;
221	2	0	0	0	0	1	1.03	21.89069	230	1	1.2	0.8 0 0 0 0 0 0 0;
222	2	0	0	0	0	1	1.03	27.8915		230	1	1.2	0.8 0 0 0 0 0 0 0;
223	2	0	0	0	0	1	1.03	19.60776	230	1	1.2	0.8 0 0 0 0 0 0 0;
224	1	0	0	0	0	1	0.99454	9.64717		230	1	1.2	0.8 0 0 0 0 0 0 0;
301	2	108	22	0	0	1	1.02903	-1.56309	138	1	1.2	0.8 0 0 0 0 0 0 0;
302	2	97	20	0	0	1	1.02838	-1.65155	138	1	1.2	0.8 0 0 0 0 0 0 0;
303	1	180	37	0	0	1	0.98641	1.01689		138	1	1.2	0.8 0 0 0 0 0 0 0;
304	1	74	15	0	0	1	0.99478	-3.25518	138	1	1.2	0.8 0 0 0 0 0 0 0;
305	1	71	14	0	0	1	1.01226	-3.634		138	1	1.2	0.8 0 0 0 0 0 0 0;
306	1	136	28	0	0	1	1.03	-5.99766	138	1	1.2	0.8 0 0 0 0 0 0 0;
307	2	125	25	0	0	1	1.00234	-10.28485	138	1	1.2	0.8 0 0 0 0 0 0 0;
308	1	171	35	0	0	1	0.9747	-9.86367	138	1	1.2	0.8 0 0 0 0 0 0 0;
309	1	175	36	0	0	1	1.00124	-0.37166	138	1	1.2	0.8 0 0 0 0 0 0 0;
310	1	195	40	0	0	1	1.02174	-2.48633	138	1	1.2	0.8 0 0 0 0 0 0 0;
311	1	0	0	0	0	1	1.00734	6.55299		230	1	1.2	0.8 0 0 0 0 0 0 0;
312	1	0	0	0	0	1	0.99729	7.67315		230	1	1.2	0.8 0 0 0 0 0 0 0;
313	2	265	54	0	0	1	1.03	11.29984	230	1	1.2	0.8 0 0 0 0 0 0 0;
314	2	194	39	0	0	1	1.03	9.9159		230	1	1.2	0.8 0 0 0 0 0 0 0;
315	2	317	64	0	0	1	1.02266	17.84269	230	1	1.2	0.8 0 0 0 0 0 0 0;
316	2	100	20	0	0	1	1.02721	17.4046		230	1	1.2	0.8 0 0 0 0 0 0 0;
317	1	0	0	0	0	1	1.02867	21.43195	230	1	1.2	0.8 0 0 0 0 0 0 0;
318	2	333	68	0	0	1	1.03	22.58457	230	1	1.2	0.8 0 0 0 0 0 0 0;
319	1	181	37	0	0	1	1.02007	17.09739	230	1	1.2	0.8 0 0 0 0 0 0 0;
320	1	128	26	0	0	1	1.02392	18.76297	230	1	1.2	0.8 0 0 0 0 0 0 0;
321	2	0	0	0	0	1	1.03	23.52672	230	1	1.2	0.8 0 0 0 0 0 0 0;
322	2	0	0	0	0	1	1.03	29.46346	230	1	1.2	0.8 0 0 0 0 0 0 0;
323	2	0	0	0	0	1	1.02977	20.40468	230	1	1.2	0.8 0 0 0 0 0 0 0;
324	1	0	0	0	0	1	0.98789	11.67787	230	1	1.2	0.8 0 0 0 0 0 0 0;
325	1	0	0	0	0	1	1.03	20.66562	230	1	1.2	0.8 0 0 0 0 0 0 0;
];

ps.branch = [...
% Added rateB as roughly midpoint between rateA and rateC
%from to R X B rateA rateB rateC tap shift status Pf Qf Pt Qt mu_f mu_t Imag_f Imag_t switchable prob_fail type id 
101	102	0.0026	0.0139	0.4611	175	200	200	1		0	1 0 0 0 0 0 0 0 0 0 0 0 1;
101	103	0.0546	0.2112	0.0572	175	200	220	1		0	1 0 0 0 0 0 0 0 0 0 0 0 2;
101	105	0.0218	0.0845	0.0229	175	200	220	1		0	1 0 0 0 0 0 0 0 0 0 0 0 3;
102	104	0.0328	0.1267	0.0343	175	200	220	1		0	1 0 0 0 0 0 0 0 0 0 0 0 4;
102	106	0.0497	0.192	0.052	175	200	220	1		0	1 0 0 0 0 0 0 0 0 0 0 0 5;
103	109	0.0308	0.119	0.0322	175	200	220	1		0	1 0 0 0 0 0 0 0 0 0 0 0 6;
103	124	0.0023	0.0839	0		400	500	600	1.015	0	1 0 0 0 0 0 0 0 0 0 0 0 7;
104	109	0.0268	0.1037	0.0281	175	200	220	1		0	1 0 0 0 0 0 0 0 0 0 0 0 8;
105	110	0.0228	0.0883	0.0239	175	200	220	1		0	1 0 0 0 0 0 0 0 0 0 0 0 9;
106	110	0.0139	0.0605	1.459	175	200	220	1		0	1 0 0 0 0 0 0 0 0 0 0 0 10;
107	108	0.0159	0.0614	0.0166	175	200	220	1		0	1 0 0 0 0 0 0 0 0 0 0 0 11;
107	203	0.042	0.161	0.044	175	200	220	1		0	1 0 0 0 0 0 0 0 0 0 0 0 12;
108	109	0.0427	0.1651	0.0447	175	200	220	1		0	1 0 0 0 0 0 0 0 0 0 0 0 13;
108	110	0.0427	0.1651	0.0447	175	200	220	1		0	1 0 0 0 0 0 0 0 0 0 0 0 14;
109	111	0.0023	0.0839	0		400	500	600	1.03	0	1 0 0 0 0 0 0 0 0 0 0 0 15;
109	112	0.0023	0.0839	0		400	500	600	1.03	0	1 0 0 0 0 0 0 0 0 0 0 0 16;
110	111	0.0023	0.0839	0		400	500	600	1.015	0	1 0 0 0 0 0 0 0 0 0 0 0 17;
110	112	0.0023	0.0839	0		400	500	600	1.015	0	1 0 0 0 0 0 0 0 0 0 0 0 18;
111	113	0.0061	0.0476	0.0999	500	550	625	1		0	1 0 0 0 0 0 0 0 0 0 0 0 19;
111	114	0.0054	0.0418	0.0879	500	550	625	1		0	1 0 0 0 0 0 0 0 0 0 0 0 20;
112	113	0.0061	0.0476	0.0999	500	550	625	1		0	1 0 0 0 0 0 0 0 0 0 0 0 21;
112	123	0.0124	0.0966	0.203	500	550	625	1		0	1 0 0 0 0 0 0 0 0 0 0 0 22;
113	123	0.0111	0.0865	0.1818	500	550	625	1		0	1 0 0 0 0 0 0 0 0 0 0 0 23;
113	215	0.01	0.075	0.158	500	550	625	1		0	1 0 0 0 0 0 0 0 0 0 0 0 24;
114	116	0.005	0.0389	0.0818	500	550	625	1		0	1 0 0 0 0 0 0 0 0 0 0 0 25;
115	116	0.0022	0.0173	0.0364	500	550	625	1		0	1 0 0 0 0 0 0 0 0 0 0 0 26;
115	121	0.0063	0.049	0.103	500	550	625	1		0	1 0 0 0 0 0 0 0 0 0 0 0 27;
115	121	0.0063	0.049	0.103	500	550	625	1		0	1 0 0 0 0 0 0 0 0 0 0 0 28;
115	124	0.0067	0.0519	0.1091	500	550	625	1		0	1 0 0 0 0 0 0 0 0 0 0 0 29;
116	117	0.0033	0.0259	0.0545	500	550	625	1		0	1 0 0 0 0 0 0 0 0 0 0 0 30;
116	119	0.003	0.0231	0.0485	500	550	625	1		0	1 0 0 0 0 0 0 0 0 0 0 0 31;
117	118	0.0018	0.0144	0.0303	500	550	625	1		0	1 0 0 0 0 0 0 0 0 0 0 0 32;
117	122	0.0135	0.1053	0.2212	500	550	625	1		0	1 0 0 0 0 0 0 0 0 0 0 0 33;
118	121	0.0033	0.0259	0.0545	500	550	625	1		0	1 0 0 0 0 0 0 0 0 0 0 0 34;
118	121	0.0033	0.0259	0.0545	500	550	625	1		0	1 0 0 0 0 0 0 0 0 0 0 0 35;
119	120	0.0051	0.0396	0.0833	500	550	625	1		0	1 0 0 0 0 0 0 0 0 0 0 0 36;
119	120	0.0051	0.0396	0.0833	500	550	625	1		0	1 0 0 0 0 0 0 0 0 0 0 0 37;
120	123	0.0028	0.0216	0.0455	500	550	625	1		0	1 0 0 0 0 0 0 0 0 0 0 0 38;
120	123	0.0028	0.0216	0.0455	500	550	625	1		0	1 0 0 0 0 0 0 0 0 0 0 0 39;
121	122	0.0087	0.0678	0.1424	500	550	625	1		0	1 0 0 0 0 0 0 0 0 0 0 0 40;
123	217	0.01	0.074	0.155	500	550	625	1		0	1 0 0 0 0 0 0 0 0 0 0 0 41;
201	202	0.0026	0.0139	0.4611	175	200	200	1		0	1 0 0 0 0 0 0 0 0 0 0 0 42;
201	203	0.0546	0.2112	0.0572	175	200	220	1		0	1 0 0 0 0 0 0 0 0 0 0 0 43;
201	205	0.0218	0.0845	0.0229	175	200	220	1		0	1 0 0 0 0 0 0 0 0 0 0 0 44;
202	204	0.0328	0.1267	0.0343	175	200	220	1		0	1 0 0 0 0 0 0 0 0 0 0 0 45;
202	206	0.0497	0.192	0.052	175	200	220	1		0	1 0 0 0 0 0 0 0 0 0 0 0 46;
203	209	0.0308	0.119	0.0322	175	200	220	1		0	1 0 0 0 0 0 0 0 0 0 0 0 47;
203	224	0.0023	0.0839	0		400	500	600	1.015	0	1 0 0 0 0 0 0 0 0 0 0 0 48;
204	209	0.0268	0.1037	0.0281	175	200	220	1		0	1 0 0 0 0 0 0 0 0 0 0 0 49;
205	210	0.0228	0.0883	0.0239	175	200	220	1		0	1 0 0 0 0 0 0 0 0 0 0 0 50;
206	210	0.0139	0.0605	1.459	175	200	220	1		0	1 0 0 0 0 0 0 0 0 0 0 0 51;
207	208	0.0159	0.0614	0.0166	175	200	220	1		0	1 0 0 0 0 0 0 0 0 0 0 0 52;
208	209	0.0427	0.1651	0.0447	175	200	220	1		0	1 0 0 0 0 0 0 0 0 0 0 0 53;
208	210	0.0427	0.1651	0.0447	175	200	220	1		0	1 0 0 0 0 0 0 0 0 0 0 0 54;
209	211	0.0023	0.0839	0		400	500	600	1.03	0	1 0 0 0 0 0 0 0 0 0 0 0 55;
209	212	0.0023	0.0839	0		400	500	600	1.03	0	1 0 0 0 0 0 0 0 0 0 0 0 56;
210	211	0.0023	0.0839	0		400	500	600	1.015	0	1 0 0 0 0 0 0 0 0 0 0 0 57;
210	212	0.0023	0.0839	0		400	500	600	1.015	0	1 0 0 0 0 0 0 0 0 0 0 0 58;
211	213	0.0061	0.0476	0.0999	500	550	625	1		0	1 0 0 0 0 0 0 0 0 0 0 0 59;
211	214	0.0054	0.0418	0.0879	500	550	625	1		0	1 0 0 0 0 0 0 0 0 0 0 0 60;
212	213	0.0061	0.0476	0.0999	500	550	625	1		0	1 0 0 0 0 0 0 0 0 0 0 0 61;
212	223	0.0124	0.0966	0.203	500	550	625	1		0	1 0 0 0 0 0 0 0 0 0 0 0 62;
213	223	0.0111	0.0865	0.1818	500	550	625	1		0	1 0 0 0 0 0 0 0 0 0 0 0 63;
214	216	0.005	0.0389	0.0818	500	550	625	1		0	1 0 0 0 0 0 0 0 0 0 0 0 64;
215	216	0.0022	0.0173	0.0364	500	550	625	1		0	1 0 0 0 0 0 0 0 0 0 0 0 65;
215	221	0.0063	0.049	0.103	500	550	625	1		0	1 0 0 0 0 0 0 0 0 0 0 0 66;
215	221	0.0063	0.049	0.103	500	550	625	1		0	1 0 0 0 0 0 0 0 0 0 0 0 67;
215	224	0.0067	0.0519	0.1091	500	550	625	1		0	1 0 0 0 0 0 0 0 0 0 0 0 68;
216	217	0.0033	0.0259	0.0545	500	550	625	1		0	1 0 0 0 0 0 0 0 0 0 0 0 69;
216	219	0.003	0.0231	0.0485	500	550	625	1		0	1 0 0 0 0 0 0 0 0 0 0 0 70;
217	218	0.0018	0.0144	0.0303	500	550	625	1		0	1 0 0 0 0 0 0 0 0 0 0 0 71;
217	222	0.0135	0.1053	0.2212	500	550	625	1		0	1 0 0 0 0 0 0 0 0 0 0 0 72;
218	221	0.0033	0.0259	0.0545	500	550	625	1		0	1 0 0 0 0 0 0 0 0 0 0 0 73;
218	221	0.0033	0.0259	0.0545	500	550	625	1		0	1 0 0 0 0 0 0 0 0 0 0 0 74;
219	220	0.0051	0.0396	0.0833	500	550	625	1		0	1 0 0 0 0 0 0 0 0 0 0 0 75;
219	220	0.0051	0.0396	0.0833	500	550	625	1		0	1 0 0 0 0 0 0 0 0 0 0 0 76;
220	223	0.0028	0.0216	0.0455	500	550	625	1		0	1 0 0 0 0 0 0 0 0 0 0 0 77;
220	223	0.0028	0.0216	0.0455	500	550	625	1		0	1 0 0 0 0 0 0 0 0 0 0 0 78;
221	222	0.0087	0.0678	0.1424	500	550	625	1		0	1 0 0 0 0 0 0 0 0 0 0 0 79;
301	302	0.0026	0.0139	0.4611	175	200	200	1		0	1 0 0 0 0 0 0 0 0 0 0 0 80;
301	303	0.0546	0.2112	0.0572	175	200	220	1		0	1 0 0 0 0 0 0 0 0 0 0 0 81;
301	305	0.0218	0.0845	0.0229	175	200	220	1		0	1 0 0 0 0 0 0 0 0 0 0 0 82;
302	304	0.0328	0.1267	0.0343	175	200	220	1		0	1 0 0 0 0 0 0 0 0 0 0 0 83;
302	306	0.0497	0.192	0.052	175	200	220	1		0	1 0 0 0 0 0 0 0 0 0 0 0 84;
303	309	0.0308	0.119	0.0322	175	200	220	1		0	1 0 0 0 0 0 0 0 0 0 0 0 85;
303	324	0.0023	0.0839	0		400	500	600	1.015	0	1 0 0 0 0 0 0 0 0 0 0 0 86;
304	309	0.0268	0.1037	0.0281	175	200	220	1		0	1 0 0 0 0 0 0 0 0 0 0 0 87;
305	310	0.0228	0.0883	0.0239	175	200	220	1		0	1 0 0 0 0 0 0 0 0 0 0 0 88;
306	310	0.0139	0.0605	1.459	175	200	220	1		0	1 0 0 0 0 0 0 0 0 0 0 0 89;
307	308	0.0159	0.0614	0.0166	175	200	220	1		0	1 0 0 0 0 0 0 0 0 0 0 0 90;
308	309	0.0427	0.1651	0.0447	175	200	220	1		0	1 0 0 0 0 0 0 0 0 0 0 0 91;
308	310	0.0427	0.1651	0.0447	175	200	220	1		0	1 0 0 0 0 0 0 0 0 0 0 0 92;
309	311	0.0023	0.0839	0		400	500	600	1.03	0	1 0 0 0 0 0 0 0 0 0 0 0 93;
309	312	0.0023	0.0839	0		400	500	600	1.03	0	1 0 0 0 0 0 0 0 0 0 0 0 94;
310	311	0.0023	0.0839	0		400	500	600	1.015	0	1 0 0 0 0 0 0 0 0 0 0 0 95;
310	312	0.0023	0.0839	0		400	500	600	1.015	0	1 0 0 0 0 0 0 0 0 0 0 0 96;
311	313	0.0061	0.0476	0.0999	500	550	625	1		0	1 0 0 0 0 0 0 0 0 0 0 0 97;
311	314	0.0054	0.0418	0.0879	500	550	625	1		0	1 0 0 0 0 0 0 0 0 0 0 0 98;
312	313	0.0061	0.0476	0.0999	500	550	625	1		0	1 0 0 0 0 0 0 0 0 0 0 0 99;
312	323	0.0124	0.0966	0.203	500	550	625	1		0	1 0 0 0 0 0 0 0 0 0 0 0 100;
313	323	0.0111	0.0865	0.1818	500	550	625	1		0	1 0 0 0 0 0 0 0 0 0 0 0 101;
314	316	0.005	0.0389	0.0818	500	550	625	1		0	1 0 0 0 0 0 0 0 0 0 0 0 102;
315	316	0.0022	0.0173	0.0364	500	550	625	1		0	1 0 0 0 0 0 0 0 0 0 0 0 103;
315	321	0.0063	0.049	0.103	500	550	625	1		0	1 0 0 0 0 0 0 0 0 0 0 0 104;
315	321	0.0063	0.049	0.103	500	550	625	1		0	1 0 0 0 0 0 0 0 0 0 0 0 105;
315	324	0.0067	0.0519	0.1091	500	550	625	1		0	1 0 0 0 0 0 0 0 0 0 0 0 106;
316	317	0.0033	0.0259	0.0545	500	550	625	1		0	1 0 0 0 0 0 0 0 0 0 0 0 107;
316	319	0.003	0.0231	0.0485	500	550	625	1		0	1 0 0 0 0 0 0 0 0 0 0 0 108;
317	318	0.0018	0.0144	0.0303	500	550	625	1		0	1 0 0 0 0 0 0 0 0 0 0 0 109;
317	322	0.0135	0.1053	0.2212	500	550	625	1		0	1 0 0 0 0 0 0 0 0 0 0 0 110;
318	321	0.0033	0.0259	0.0545	500	550	625	1		0	1 0 0 0 0 0 0 0 0 0 0 0 111;
318	321	0.0033	0.0259	0.0545	500	550	625	1		0	1 0 0 0 0 0 0 0 0 0 0 0 112;
319	320	0.0051	0.0396	0.0833	500	550	625	1		0	1 0 0 0 0 0 0 0 0 0 0 0 113;
319	320	0.0051	0.0396	0.0833	500	550	625	1		0	1 0 0 0 0 0 0 0 0 0 0 0 114;
320	323	0.0028	0.0216	0.0455	500	550	625	1		0	1 0 0 0 0 0 0 0 0 0 0 0 115;
320	323	0.0028	0.0216	0.0455	500	550	625	1		0	1 0 0 0 0 0 0 0 0 0 0 0 116;
321	322	0.0087	0.0678	0.1424	500	550	625	1		0	1 0 0 0 0 0 0 0 0 0 0 0 117;
325	121	0.012	0.097	0.203	500	550	625	1		0	1 0 0 0 0 0 0 0 0 0 0 0 118;
318	223	0.013	0.104	0.218	500	550	625	1		0	1 0 0 0 0 0 0 0 0 0 0 0 119;
323	325	0       0.009	0       722	800	893	1		0	1 0 0 0 0 0 0 0 0 0 0 0 120;
];

% Pg being zero will break add_dyn.m
ps.gen = [...
%bus Pg Qg Qmax Qmin Vsp mBase status Pmax Pmin mu_Px mu_Pn mu_Qx mu_Qn type cost part_fact RRU RRD id 
101 172		27.67	80	-50	1.035	100	1	192 0 0 0 0 0 2 0.3 0 0 0 1;
102 172		5.68	80	-50	1.035	100	1	192 0 0 0 0 0 2 0.3 0 0 0 2;
107 240		69.67	180	0	1.025	100 1	300 0 0 0 0 0 2 0.3 0 0 0 3;
113 -13.61	172.2	240 0	1.02	100	1	591 0 0 0 0 0 2 0.3 0 0 0 4;
115 215		-12.1	110 -50	1.014	100	1	245 0 0 0 0 0 2 0.3 0 0 0 5;
116	155		25.34	80	-50	1.017	100	1	155	0 0 0 0 0 2 0.3 0 0 0 6;
118	400		138.1	200	-50	1.05	100	1	400	0 0 0 0 0 2 0.3 0 0 0 7;
121	400		94.33	200	-50	1.05	100	1	400	0 0 0 0 0 2 0.3 0 0 0 8;
122 300		-29.64	96	-60	1.05	100	1	300 0 0 0 0 0 2 0.3 0 0 0 9;
123 660		144.35	310 -125 1.05	100	1	660 0 0 0 0 0 2 0.3 0 0 0 10;
201 172		19.59	80	-50	1.035	100	1	192	0 0 0 0 0 2 0.3 0 0 0 11;
202 172		3.22	80	-50	1.035	100	1	192	0 0 0 0 0 2 0.3 0 0 0 12;
207 240		52.38	180	0	1.025	100	1	300 0 0 0 0 0 2 0.3 0 0 0 13;
213	285.3	115.01	240	0	1.02	100	1	591	0 0 0 0 0 2 0.3 0 0 0 14;
215	215		-33.1	110	-50	1.014	100	1	215	0 0 0 0 0 2 0.3 0 0 0 15;
216	155		-2.88	80	-50	1.017	100	1	155	0 0 0 0 0 2 0.3 0 0 0 16;
218	400		122.42	200	-50	1.05	100	1	400	0 0 0 0 0 2 0.3 0 0 0 17;
221	400		109.36	200	-50	1.05	100	1	400	0 0 0 0 0 2 0.3 0 0 0 18;
222 300		-31.77	96	-60	1.05	100	1	300	0 0 0 0 0 2 0.3 0 0 0 19;
223 660		137.52	310	-125 1.05	100	1	660 0 0 0 0 0 2 0.3 0 0 0 20;
301	172		25.97	80	-50	1.035	100	1	192	0 0 0 0 0 2 0.3 0 0 0 21;
302	172		4.78	80	-50	1.035	100	1	192 0 0 0 0 0 2 0.3 0 0 0 22;
307	240		53.62	180	0	1.025	100	1	300 0 0 0 0 0 2 0.3 0 0 0 23;
313 285.3	112.4	240	0	1.02	100	1	591	0 0 0 0 0 2 0.3 0 0 0 24;
315 215		-23.63	110	-50	1.014	100	1	215 0 0 0 0 0 2 0.3 0 0 0 25;
316	155		6.97	80	-50	1.017	100	1	155	0 0 0 0 0 2 0.3 0 0 0 26;
318	400		129.82	200	-50	1.05	100	1	400	0 0 0 0 0 2 0.3 0 0 0 27;
321	400		103.2	200	-50	1.05	100	1	400	0 0 0 0 0 2 0.3 0 0 0 28;
322 300		-30.08	96	-60	1.05	100	1	300	0 0 0 0 0 2 0.3 0 0 0 29;
323 660		120.39	310	-125 1.05	100	1	660 0 0 0 0 0 2 0.3 0 0 0 30;
];


ps.shunt = [...
%bus P Q frac_S frac_Z status type value (last two values may be unused)
% Q = 13.68, on bus 114, 214 and 314. Added to rest of shunt value
101	108	22		0	0	1	1	1000	1	0.08;
102	97	20		0	0	1	1	1000	1	0.08;
103	180	37		0	0	1	1	1000	1	0.08;
104	74	15		0	0	1	1	1000	1	0.08;
105	71	14		0	0	1	1	1000	1	0.08;
106	136	28		0	0	1	1	1000	1	0.08;
107	125	25		0	0	1	1	1000	1	0.08;
108	171	35		0	0	1	1	1000	1	0.08;
109	175	36		0	0	1	1	1000	1	0.08;
110	195	40		0	0	1	1	1000	1	0.08;
113	265	54		0	0	1	1	1000	1	0.08;
114	194	52.68	0	0	1	1	1000	1	0.08;
115	317	64		0	0	1	1	1000	1	0.08;
116	100	20		0	0	1	1	1000	1	0.08;
118	333	68		0	0	1	1	1000	1	0.08;
119	181	37		0	0	1	1	1000	1	0.08;
120	128	26		0	0	1	1	1000	1	0.08;
201	108	22		0	0	1	1	1000	1	0.08;
202	97	20		0	0	1	1	1000	1	0.08;
203	180	37		0	0	1	1	1000	1	0.08;
204	74	15		0	0	1	1	1000	1	0.08;
205	71	14		0	0	1	1	1000	1	0.08;
206	136	28		0	0	1	1	1000	1	0.08;
207	125	25		0	0	1	1	1000	1	0.08;
208	171	35		0	0	1	1	1000	1	0.08;
209	175	36		0	0	1	1	1000	1	0.08;
210	195	40		0	0	1	1	1000	1	0.08;
213	265	54		0	0	1	1	1000	1	0.08;
214	194	52.68	0	0	1	1	1000	1	0.08;
215	317	64		0	0	1	1	1000	1	0.08;
216	100	20		0	0	1	1	1000	1	0.08;
218	333	68		0	0	1	1	1000	1	0.08;
219	181	37		0	0	1	1	1000	1	0.08;
220	128	26		0	0	1	1	1000	1	0.08;
301	108	22		0	0	1	1	1000	1	0.08;
302	97	20		0	0	1	1	1000	1	0.08;
303	180	37		0	0	1	1	1000	1	0.08;
304	74	15		0	0	1	1	1000	1	0.08;
305	71	14		0	0	1	1	1000	1	0.08;
306	136	28		0	0	1	1	1000	1	0.08;
307	125	25		0	0	1	1	1000	1	0.08;
308	171	35		0	0	1	1	1000	1	0.08;
309	175	36		0	0	1	1	1000	1	0.08;
310	195	40		0	0	1	1	1000	1	0.08;
313	265	54		0	0	1	1	1000	1	0.08;
314	194	52.68	0	0	1	1	1000	1	0.08;
315	317	64		0	0	1	1	1000	1	0.08;
316	100	20		0	0	1	1	1000	1	0.08;
318	333	68		0	0	1	1	1000	1	0.08;
319	181	37		0	0	1	1	1000	1	0.08;
320	128	26		0	0	1	1	1000	1	0.08;
];

ps.areas = [...
 1 1;
];

ps.gencost = [...
%	1	startup	shutdown	n	x1	y1	...	xn	yn
%	2	startup shutdown	n	c(n-1)	...	c0
2	0	0	3	7.243935		-95.3536074		2849.05175;
2	0	0	3	7.243935		-95.3536074		2849.05175;
2	0	0	3	0.0683778854	17.3816703		296.410165;
2	0	0	3	0.0683778854	17.3816703		296.410165;
2	0	0	3	7.243935		-95.3536074		2849.05175;
2	0	0	3	7.243935		-95.3536074		2849.05175;
2	0	0	3	0.0683778854	17.3816703		296.410165;
2	0	0	3	0.0683778854	17.3816703		296.410165;
2	0	0	3	0.108692015		68.4133121		1182.04292;
2	0	0	3	0.108692015		68.4133121		1182.04292;
2	0	0	3	0.108692015		68.4133121		1182.04292;
2	0	0	3	0.0453307695	69.7560738		1727.41795;
2	0	0	3	0.0453307695	69.7560738		1727.41795;
2	0	0	3	0.0453307695	69.7560738		1727.41795;
2	0	0	3	0				0				0;
2	0	0	3	1.4416296		79.0806223		153.23393;
2	0	0	3	1.4416296		79.0806223		153.23393;
2	0	0	3	1.4416296		79.0806223		153.23393;
2	0	0	3	1.4416296		79.0806223		153.23393;
2	0	0	3	1.4416296		79.0806223		153.23393;
2	0	0	3	0.0122979219	16.6776157		407.480669;
2	0	0	3	0.0122979219	16.6776157		407.480669;
2	0	0	3	1.3211601e-06	0.0115389973	0.546717239;
2	0	0	3	1.3211601e-06	0.0115389973	0.546717239;
2	0	0	3	0				0				0;
2	0	0	3	0				0				0;
2	0	0	3	0				0				0;
2	0	0	3	0				0				0;
2	0	0	3	0				0				0;
2	0	0	3	0				0				0;
2	0	0	3	0.0122979219	16.6776157		407.480669;
2	0	0	3	0.0122979219	16.6776157		407.480669;
2	0	0	3	0.00721131101	16.4269908		715.030539;
2	0	0	3	7.243935		-95.3536074		2849.05175;
2	0	0	3	7.243935		-95.3536074		2849.05175;
2	0	0	3	0.0683778854	17.3816703		296.410165;
2	0	0	3	0.0683778854	17.3816703		296.410165;
2	0	0	3	7.243935		-95.3536074		2849.05175;
2	0	0	3	7.243935		-95.3536074		2849.05175;
2	0	0	3	0.0683778854	17.3816703		296.410165;
2	0	0	3	0.0683778854	17.3816703		296.410165;
2	0	0	3	0.108692015		68.4133121		1182.04292;
2	0	0	3	0.108692015		68.4133121		1182.04292;
2	0	0	3	0.108692015		68.4133121		1182.04292;
2	0	0	3	0.0453307695	69.7560738		1727.41795;
2	0	0	3	0.0453307695	69.7560738		1727.41795;
2	0	0	3	0.0453307695	69.7560738		1727.41795;
2	0	0	3	0				0				0;
2	0	0	3	1.4416296		79.0806223		153.23393;
2	0	0	3	1.4416296		79.0806223		153.23393;
2	0	0	3	1.4416296		79.0806223		153.23393;
2	0	0	3	1.4416296		79.0806223		153.23393;
2	0	0	3	1.4416296		79.0806223		153.23393;
2	0	0	3	0.0122979219	16.6776157		407.480669;
2	0	0	3	0.0122979219	16.6776157		407.480669;
2	0	0	3	1.3211601e-06	0.0115389973	0.546717239;
2	0	0	3	1.3211601e-06	0.0115389973	0.546717239;
2	0	0	3	0				0				0;
2	0	0	3	0				0				0;
2	0	0	3	0				0				0;
2	0	0	3	0				0				0;
2	0	0	3	0				0				0;
2	0	0	3	0				0				0;
2	0	0	3	0.0122979219	16.6776157		407.480669;
2	0	0	3	0.0122979219	16.6776157		407.480669;
2	0	0	3	0.00721131101	16.4269908		715.030539;
2	0	0	3	7.243935		-95.3536074		2849.05175;
2	0	0	3	7.243935		-95.3536074		2849.05175;
2	0	0	3	0.0683778854	17.3816703		296.410165;
2	0	0	3	0.0683778854	17.3816703		296.410165;
2	0	0	3	7.243935		-95.3536074		2849.05175;
2	0	0	3	7.243935		-95.3536074		2849.05175;
2	0	0	3	0.0683778854	17.3816703		296.410165;
2	0	0	3	0.0683778854	17.3816703		296.410165;
2	0	0	3	0.108692015		68.4133121		1182.04292;
2	0	0	3	0.108692015		68.4133121		1182.04292;
2	0	0	3	0.108692015		68.4133121		1182.04292;
2	0	0	3	0.0453307695	69.7560738		1727.41795;
2	0	0	3	0.0453307695	69.7560738		1727.41795;
2	0	0	3	0.0453307695	69.7560738		1727.41795;
2	0	0	3	0				0				0;
2	0	0	3	1.4416296		79.0806223		153.23393;
2	0	0	3	1.4416296		79.0806223		153.23393;
2	0	0	3	1.4416296		79.0806223		153.23393;
2	0	0	3	1.4416296		79.0806223		153.23393;
2	0	0	3	1.4416296		79.0806223		153.23393;
2	0	0	3	0.0122979219	16.6776157		407.480669;
2	0	0	3	0.0122979219	16.6776157		407.480669;
2	0	0	3	1.3211601e-06	0.0115389973	0.546717239;
2	0	0	3	1.3211601e-06	0.0115389973	0.546717239;
2	0	0	3	0				0				0;
2	0	0	3	0				0				0;
2	0	0	3	0				0				0;
2	0	0	3	0				0				0;
2	0	0	3	0				0				0;
2	0	0	3	0				0				0;
2	0	0	3	0.0122979219	16.6776157		407.480669;
2	0	0	3	0.0122979219	16.6776157		407.480669;
2	0	0	3	0.00721131101	16.4269908		715.030539;
];

